data_image0
_chemical_formula_structural       Cd20Hg20Pd40
_chemical_formula_sum              "Cd20 Hg20 Pd40"
_cell_length_a       9.423513412475586
_cell_length_b       14.135270295543743
_cell_length_c       33.64867401123047
_cell_angle_alpha    98.04946701906076
_cell_angle_beta     90.0
_cell_angle_gamma    90.0

_space_group_name_H-M_alt    "P 1"
_space_group_IT_number       1

loop_
  _space_group_symop_operation_xyz
  'x, y, z'

loop_
  _atom_site_type_symbol
  _atom_site_label
  _atom_site_symmetry_multiplicity
  _atom_site_fract_x
  _atom_site_fract_y
  _atom_site_fract_z
  _atom_site_occupancy
  Cd  Cd1       1.0  0.25  0.2616102122170177  0.5448414433073777  1.0000
  Cd  Cd2       1.0  0.25  0.7949435784842239  0.4781747634622073  1.0000
  Cd  Cd3       1.0  0.25  0.7282768800193352  0.6115080932717675  1.0000
  Cd  Cd4       1.0  0.25  0.3282768936471446  0.4115080841536659  1.0000
  Cd  Cd5       1.0  0.25  0.8616102088100656  0.344841429644468  1.0000
  Cd  Cd6       1.0  0.0  0.9949435376007958  0.5781747660171686  1.0000
  Cd  Cd7       1.0  0.0  0.5282768868332398  0.5115081170548236  1.0000
  Cd  Cd8       1.0  0.0  0.4616102224378748  0.6448414205263664  1.0000
  Cd  Cd9       1.0  0.0  0.061610210513541507  0.44484140990519766  1.0000
  Cd  Cd10      1.0  0.0  0.594943551228605  0.37817475689906693  1.0000
  Cd  Cd11      1.0  0.75  0.2616102122170177  0.5448414433073777  1.0000
  Cd  Cd12      1.0  0.75  0.7949435784842239  0.4781747634622073  1.0000
  Cd  Cd13      1.0  0.75  0.7282768800193352  0.6115080932717675  1.0000
  Cd  Cd14      1.0  0.75  0.3282768936471446  0.4115080841536659  1.0000
  Cd  Cd15      1.0  0.75  0.8616102088100656  0.344841429644468  1.0000
  Cd  Cd16      1.0  0.5  0.9949435376007958  0.5781747660171686  1.0000
  Cd  Cd17      1.0  0.5  0.5282768868332398  0.5115081170548236  1.0000
  Cd  Cd18      1.0  0.5  0.4616102224378748  0.6448414205263664  1.0000
  Cd  Cd19      1.0  0.5  0.061610210513541507  0.44484140990519766  1.0000
  Cd  Cd20      1.0  0.5  0.594943551228605  0.37817475689906693  1.0000
  Hg  Hg1       1.0  0.0  0.22827688001933513  0.6115080667010423  1.0000
  Hg  Hg2       1.0  0.0  0.7616102292517795  0.544841414195934  1.0000
  Hg  Hg3       1.0  0.0  0.36161020881006534  0.34484143141584966  1.0000
  Hg  Hg4       1.0  0.0  0.2949435444147003  0.47817476322949937  1.0000
  Hg  Hg5       1.0  0.0  0.8282768595776211  0.41150808037819464  1.0000
  Hg  Hg6       1.0  0.25  0.028276880445204176  0.5115080901083315  1.0000
  Hg  Hg7       1.0  0.25  0.5616102019961607  0.44484143597490045  1.0000
  Hg  Hg8       1.0  0.25  0.49494353760079557  0.5781747394464434  1.0000
  Hg  Hg9       1.0  0.25  0.09494354271122409  0.3781747581694262  1.0000
  Hg  Hg10      1.0  0.25  0.9616102565073983  0.6448414491011812  1.0000
  Hg  Hg11      1.0  0.5  0.22827688001933513  0.6115080667010423  1.0000
  Hg  Hg12      1.0  0.5  0.7616102292517795  0.544841414195934  1.0000
  Hg  Hg13      1.0  0.5  0.36161020881006534  0.34484143141584966  1.0000
  Hg  Hg14      1.0  0.5  0.2949435444147003  0.47817476322949937  1.0000
  Hg  Hg15      1.0  0.5  0.8282768595776211  0.41150808037819464  1.0000
  Hg  Hg16      1.0  0.75  0.028276880445204176  0.5115080901083315  1.0000
  Hg  Hg17      1.0  0.75  0.5616102019961607  0.44484143597490045  1.0000
  Hg  Hg18      1.0  0.75  0.49494353760079557  0.5781747394464434  1.0000
  Hg  Hg19      1.0  0.75  0.09494354271122409  0.3781747581694262  1.0000
  Hg  Hg20      1.0  0.75  0.9616102565073983  0.6448414491011812  1.0000
  Pd  Pd1       1.0  0.0  0.21161020540311304  0.3948414345810659  1.0000
  Pd  Pd2       1.0  0.0  0.07827688512976366  0.6615080703672809  1.0000
  Pd  Pd3       1.0  0.0  0.6782768561706688  0.46150808354341083  1.0000
  Pd  Pd4       1.0  0.0  0.6116102258448274  0.5948414173611501  1.0000
  Pd  Pd5       1.0  0.0  0.1449435410077479  0.5281747663947156  1.0000
  Pd  Pd6       1.0  0.25  0.1782768902401922  0.46150808731888215  1.0000
  Pd  Pd7       1.0  0.25  0.711610205403113  0.39484143280968426  1.0000
  Pd  Pd8       1.0  0.25  0.6449435750772714  0.5281747382853167  1.0000
  Pd  Pd9       1.0  0.25  0.5782768766123828  0.6615080964369837  1.0000
  Pd  Pd10      1.0  0.25  0.11161020881006536  0.594841446472594  1.0000
  Pd  Pd11      1.0  0.25  0.9449435818911761  0.42817476029699114  1.0000
  Pd  Pd12      1.0  0.25  0.47827689705409693  0.36150808098844966  1.0000
  Pd  Pd13      1.0  0.25  0.4116102326587318  0.4948414128020994  1.0000
  Pd  Pd14      1.0  0.25  0.3449435341938432  0.6281747426116595  1.0000
  Pd  Pd15      1.0  0.25  0.8782768834262877  0.5615080901065512  1.0000
  Pd  Pd16      1.0  0.0  0.9116102326587319  0.49484141103071777  1.0000
  Pd  Pd17      1.0  0.0  0.4449435478216526  0.4281747600642832  1.0000
  Pd  Pd18      1.0  0.0  0.3782768834262876  0.5615081202200398  1.0000
  Pd  Pd19      1.0  0.0  0.9782768629845734  0.36150807721297834  1.0000
  Pd  Pd20      1.0  0.0  0.8449435341938433  0.6281747691823847  1.0000
  Pd  Pd21      1.0  0.5  0.21161020540311304  0.3948414345810659  1.0000
  Pd  Pd22      1.0  0.5  0.07827688512976366  0.6615080703672809  1.0000
  Pd  Pd23      1.0  0.5  0.6782768561706688  0.46150808354341083  1.0000
  Pd  Pd24      1.0  0.5  0.6116102258448274  0.5948414173611501  1.0000
  Pd  Pd25      1.0  0.5  0.1449435410077479  0.5281747663947156  1.0000
  Pd  Pd26      1.0  0.75  0.1782768902401922  0.46150808731888215  1.0000
  Pd  Pd27      1.0  0.75  0.711610205403113  0.39484143280968426  1.0000
  Pd  Pd28      1.0  0.75  0.6449435750772714  0.5281747382853167  1.0000
  Pd  Pd29      1.0  0.75  0.5782768766123828  0.6615080964369837  1.0000
  Pd  Pd30      1.0  0.75  0.11161020881006536  0.594841446472594  1.0000
  Pd  Pd31      1.0  0.75  0.9449435818911761  0.42817476029699114  1.0000
  Pd  Pd32      1.0  0.75  0.47827689705409693  0.36150808098844966  1.0000
  Pd  Pd33      1.0  0.75  0.4116102326587318  0.4948414128020994  1.0000
  Pd  Pd34      1.0  0.75  0.3449435341938432  0.6281747426116595  1.0000
  Pd  Pd35      1.0  0.75  0.8782768834262877  0.5615080901065512  1.0000
  Pd  Pd36      1.0  0.5  0.9116102326587319  0.49484141103071777  1.0000
  Pd  Pd37      1.0  0.5  0.4449435478216526  0.4281747600642832  1.0000
  Pd  Pd38      1.0  0.5  0.3782768834262876  0.5615081202200398  1.0000
  Pd  Pd39      1.0  0.5  0.9782768629845734  0.36150807721297834  1.0000
  Pd  Pd40      1.0  0.5  0.8449435341938433  0.6281747691823847  1.0000
