data_image0
_chemical_formula_structural       Fe6H16C28O20N2
_chemical_formula_sum              "Fe6 H16 C28 O20 N2"
_cell_length_a       6.738759994506836
_cell_length_b       15.285600177558718
_cell_length_c       15.369600222056038
_cell_angle_alpha    61.44840132182279
_cell_angle_beta     80.58240025275052
_cell_angle_gamma    97.61580010620358

_space_group_name_H-M_alt    "P 1"
_space_group_IT_number       1

loop_
  _space_group_symop_operation_xyz
  'x, y, z'

loop_
  _atom_site_type_symbol
  _atom_site_label
  _atom_site_symmetry_multiplicity
  _atom_site_fract_x
  _atom_site_fract_y
  _atom_site_fract_z
  _atom_site_occupancy
  Fe  Fe1       1.0  0.8539811968636816  0.6670247167051051  0.6132781917102738  1.0000
  Fe  Fe2       1.0  0.46168922688895264  0.6070825526456897  0.7316979869680776  1.0000
  Fe  Fe3       1.0  0.18550699700167908  0.7273763013836595  0.6706665696916341  1.0000
  Fe  Fe4       1.0  0.1040010053792299  0.3254150102773569  0.40220694784157873  1.0000
  Fe  Fe5       1.0  0.5027298802757422  0.427297431237689  0.27155390221580145  1.0000
  Fe  Fe6       1.0  0.763328345818991  0.2737154909579386  0.32852870339015544  1.0000
  H   H1        1.0  0.6248246918275877  0.022769728467925514  0.5195474446444758  1.0000
  H   H2        1.0  0.14262312951296668  0.514335832260096  0.475047319230588  1.0000
  H   H3        1.0  0.5993147492068078  0.4590767747986462  0.02846472922819679  1.0000
  H   H4        1.0  0.3351025441048403  0.9749464952010419  0.45564844687265765  1.0000
  H   H5        1.0  0.7963867035064666  0.45463650301652214  0.5751043701105779  1.0000
  H   H6        1.0  0.35358857413912304  0.5714590813261745  0.9777137911667063  1.0000
  H   H7        1.0  0.546144475749165  0.7635711153223024  0.08249744196644293  1.0000
  H   H8        1.0  0.7553182072437152  0.8001944706855114  0.12498149706133457  1.0000
  H   H9        1.0  0.9252281546262912  0.6700943868965834  0.10677295908287766  1.0000
  H   H10       1.0  0.7214238457831661  0.6385383351590376  0.05959756757789052  1.0000
  H   H11       1.0  0.8178621997342997  0.8191151431412088  0.9226496310607323  1.0000
  H   H12       1.0  0.6140972464555265  0.9395179629408362  0.9366629866885671  1.0000
  H   H13       1.0  0.8680678268078017  0.9975141955983045  0.8499598441414155  1.0000
  H   H14       1.0  0.8270219835675156  0.9817878883973505  0.9742392264787498  1.0000
  H   H15       1.0  0.4969227478139202  0.608767211133396  0.22824502581009032  1.0000
  H   H16       1.0  0.7066602255421168  0.5967767518658776  0.26790586904799885  1.0000
  C   C1        1.0  0.6154825043477997  0.8319405935764476  0.5798877684727926  1.0000
  C   C2        1.0  0.8069781358817854  0.913987988449882  0.5346332207193694  1.0000
  C   C3        1.0  0.011823206983331632  0.8983943911061518  0.5185560968856674  1.0000
  C   C4        1.0  0.7814357239258847  0.012678365386059619  0.5062447921041641  1.0000
  C   C5        1.0  0.19620808640384965  0.5759251093887865  0.6015366274405587  1.0000
  C   C6        1.0  0.342892998681494  0.5308845564910549  0.5644710065627903  1.0000
  C   C7        1.0  0.5332511400609626  0.515718389373539  0.5930848728607566  1.0000
  C   C8        1.0  0.287301741123648  0.5021413373909148  0.4962632295554144  1.0000
  C   C9        1.0  0.7820339763584684  0.5929921455881094  0.8362839499199078  1.0000
  C   C10       1.0  0.8891124169623159  0.5552628362245132  0.918180755216969  1.0000
  C   C11       1.0  0.10881422893022326  0.5873449943246638  0.901862754767996  1.0000
  C   C12       1.0  0.7651360892054617  0.4833750369461975  0.01745922955665825  1.0000
  C   C13       1.0  0.34209501779746704  0.16802748901782694  0.39690832083828576  1.0000
  C   C14       1.0  0.15296498747645085  0.08376735072300948  0.44177872453637107  1.0000
  C   C15       1.0  0.9485384657445913  0.09874296409537427  0.4597630321419551  1.0000
  C   C16       1.0  0.1787862157744801  0.985117715483868  0.47018884814441597  1.0000
  C   C17       1.0  0.7325948454792898  0.38939608173621804  0.4469916691227496  1.0000
  C   C18       1.0  0.595984388102682  0.43872171185620196  0.4853212336980239  1.0000
  C   C19       1.0  0.4067046716729941  0.4556707889557031  0.45622956536551346  1.0000
  C   C20       1.0  0.6529167734288651  0.4682770509740111  0.5530147332781727  1.0000
  C   C21       1.0  0.16549301671842787  0.44079768167894323  0.17131052317639867  1.0000
  C   C22       1.0  0.06306519111856787  0.47739384708147986  0.08743239430477537  1.0000
  C   C23       1.0  0.844295793117982  0.4440014717856804  0.10344063745084055  1.0000
  C   C24       1.0  0.18771082920951085  0.5478818345831888  0.9883207036523979  1.0000
  C   C25       1.0  0.7170151063894433  0.7723439583417062  0.07398848650754372  1.0000
  C   C26       1.0  0.7601117421870522  0.666583106025207  0.11008600034185163  1.0000
  C   C27       1.0  0.7826277159531771  0.9458349012527781  0.9307478999393273  1.0000
  C   C28       1.0  0.2398999191761913  0.7957110463561216  0.3548901684585097  1.0000
  O   O1        1.0  0.6225023124190843  0.7417034598299953  0.5926305584913105  1.0000
  O   O2        1.0  0.4406458102410655  0.8478288474498175  0.6052940319086882  1.0000
  O   O3        1.0  0.05260316875043872  0.8055956130085595  0.5488449410203511  1.0000
  O   O4        1.0  0.2119529959831749  0.5882644392343724  0.6786758634899832  1.0000
  O   O5        1.0  0.048438725258292376  0.6018477733921693  0.5600917643319391  1.0000
  O   O6        1.0  0.6014457682101592  0.5457130242367909  0.654434983362538  1.0000
  O   O7        1.0  0.8784773200323368  0.6725265572887931  0.7457972445237155  1.0000
  O   O8        1.0  0.5931697291350372  0.5511552229758865  0.8521120752354547  1.0000
  O   O9        1.0  0.24233205788883913  0.6504728884334655  0.8091450870389942  1.0000
  O   O10       1.0  0.3293374055204498  0.25591251088004413  0.38648601701004515  1.0000
  O   O11       1.0  0.5194686216610186  0.15320292119003026  0.3723790399881523  1.0000
  O   O12       1.0  0.9096754820453964  0.19108082653259548  0.4331788732769493  1.0000
  O   O13       1.0  0.6885506346666863  0.3722702271447422  0.37677020897729296  1.0000
  O   O14       1.0  0.8896961310443977  0.36585685557912195  0.4805958227955912  1.0000
  O   O15       1.0  0.3366207378055567  0.42948850019529083  0.392580590495998  1.0000
  O   O16       1.0  0.059445027954108776  0.3668255072417875  0.26178753350833717  1.0000
  O   O17       1.0  0.3558850191142041  0.4796952563351946  0.15680290219736254  1.0000
  O   O18       1.0  0.7117480715294581  0.37961249571974814  0.19671837806623788  1.0000
  O   O19       1.0  0.4019995437434607  0.8134549087427966  0.36985887205939555  1.0000
  O   O20       1.0  0.07977489609276249  0.778634196719207  0.3378318675371786  1.0000
  N   N1        1.0  0.6361384717827342  0.5907378792363803  0.21623478021252754  1.0000
  N   N2        1.0  0.8382241758078551  0.8471225381678954  0.9698898377287707  1.0000
