data_image0
_chemical_formula_structural       H48C80
_chemical_formula_sum              "H48 C80"
_cell_length_a       18.76100611000009
_cell_length_b       18.76100611000009
_cell_length_c       3.83538105
_cell_angle_alpha    90.0
_cell_angle_beta     90.0
_cell_angle_gamma    90.0

_space_group_name_H-M_alt    "P 1"
_space_group_IT_number       1

loop_
  _space_group_symop_operation_xyz
  'x, y, z'

loop_
  _atom_site_type_symbol
  _atom_site_label
  _atom_site_symmetry_multiplicity
  _atom_site_fract_x
  _atom_site_fract_y
  _atom_site_fract_z
  _atom_site_occupancy
  H   H1        1.0  0.40424091  0.13864812  0.24317139000000002  1.0000
  H   H2        1.0  0.28337382  0.15848291  0.36349176000000005  1.0000
  H   H3        1.0  0.15174999  0.13467257  0.35657818  1.0000
  H   H4        1.0  0.02473048  0.10620512  0.45431486000000004  1.0000
  H   H5        1.0  0.94186054  0.19172197  0.7270321400000002  1.0000
  H   H6        1.0  0.9233063699999999  0.32416988  0.9624389900000001  1.0000
  H   H7        1.0  0.27863259  0.4348864599999999  0.85225286  1.0000
  H   H8        1.0  0.40659881  0.40765411  0.65307947  1.0000
  H   H9        1.0  0.49983186  0.33870359  0.41855543000000006  1.0000
  H   H10       1.0  0.49926839  0.21906183000000004  0.26211628  1.0000
  H   H11       1.0  0.9792556599999999  0.4386957000000001  0.12116337  1.0000
  H   H12       1.0  0.10864013  0.4602940300000001  0.040116500000000006  1.0000
  H   H13       1.0  0.86135188  0.40424091000000006  0.24317139000000002  1.0000
  H   H14       1.0  0.84151709  0.28337382000000005  0.36349176000000005  1.0000
  H   H15       1.0  0.86532743  0.15174999  0.35657818  1.0000
  H   H16       1.0  0.8937948799999998  0.024730480000000003  0.45431486000000004  1.0000
  H   H17       1.0  0.80827803  0.94186054  0.7270321400000002  1.0000
  H   H18       1.0  0.67583012  0.9233063700000002  0.9624389900000001  1.0000
  H   H19       1.0  0.56511354  0.27863259  0.85225286  1.0000
  H   H20       1.0  0.59234589  0.40659881  0.65307947  1.0000
  H   H21       1.0  0.66129641  0.4998318600000001  0.41855543000000006  1.0000
  H   H22       1.0  0.78093817  0.49926838999999995  0.26211628  1.0000
  H   H23       1.0  0.5613043  0.97925566  0.12116337  1.0000
  H   H24       1.0  0.53970597  0.10864013000000002  0.040116500000000006  1.0000
  H   H25       1.0  0.59575909  0.8613518800000001  0.24317139000000002  1.0000
  H   H26       1.0  0.71662618  0.84151709  0.36349176000000005  1.0000
  H   H27       1.0  0.84825001  0.8653274300000001  0.35657818  1.0000
  H   H28       1.0  0.97526952  0.8937948800000001  0.45431486000000004  1.0000
  H   H29       1.0  0.05813945999999999  0.80827803  0.7270321400000002  1.0000
  H   H30       1.0  0.07669363  0.67583012  0.9624389900000001  1.0000
  H   H31       1.0  0.72136741  0.56511354  0.85225286  1.0000
  H   H32       1.0  0.59340119  0.59234589  0.65307947  1.0000
  H   H33       1.0  0.50016814  0.6612964100000001  0.41855543000000006  1.0000
  H   H34       1.0  0.50073161  0.7809381700000001  0.26211628  1.0000
  H   H35       1.0  0.02074434  0.5613043  0.12116337  1.0000
  H   H36       1.0  0.89135987  0.5397059700000001  0.040116500000000006  1.0000
  H   H37       1.0  0.13864812  0.59575909  0.24317139000000002  1.0000
  H   H38       1.0  0.15848291  0.71662618  0.36349176000000005  1.0000
  H   H39       1.0  0.13467257  0.8482500100000001  0.35657818  1.0000
  H   H40       1.0  0.10620512  0.9752695199999999  0.45431486000000004  1.0000
  H   H41       1.0  0.19172197  0.05813946  0.7270321400000002  1.0000
  H   H42       1.0  0.32416988  0.07669363  0.9624389900000001  1.0000
  H   H43       1.0  0.43488646  0.72136741  0.85225286  1.0000
  H   H44       1.0  0.40765411  0.59340119  0.65307947  1.0000
  H   H45       1.0  0.33870359  0.50016814  0.41855543000000006  1.0000
  H   H46       1.0  0.21906182999999999  0.50073161  0.26211628  1.0000
  H   H47       1.0  0.4386957000000001  0.02074434  0.12116337  1.0000
  H   H48       1.0  0.4602940300000001  0.8913598700000002  0.040116500000000006  1.0000
  C   C1        1.0  0.39056379  0.19247496000000003  0.3277964300000001  1.0000
  C   C2        1.0  0.31872914  0.20416708000000003  0.40235975  1.0000
  C   C3        1.0  0.11801317  0.1737147  0.4870519300000001  1.0000
  C   C4        1.0  0.04463694  0.15806893  0.5386280300000001  1.0000
  C   C5        1.0  0.9975431  0.20618724  0.6872551900000001  1.0000
  C   C6        1.0  0.20326148  0.34543224  0.7470656900000001  1.0000
  C   C7        1.0  0.26845921  0.38130903  0.7578599800000001  1.0000
  C   C8        1.0  0.32120959  0.33525887  0.61954228  1.0000
  C   C9        1.0  0.3923929  0.35345086  0.57317154  1.0000
  C   C10       1.0  0.44825303  0.31211516  0.43937297000000003  1.0000
  C   C11       1.0  0.44756432  0.24064897000000002  0.3401007  1.0000
  C   C12       1.0  0.28565271  0.26588554  0.52578153  1.0000
  C   C13       1.0  0.21317691  0.27516297  0.60355561  1.0000
  C   C14       1.0  0.14448281  0.23891456000000003  0.5982067300000001  1.0000
  C   C15       1.0  0.02198644  0.27499367  0.7880549300000002  1.0000
  C   C16       1.0  0.9804833899999998  0.33166286  0.9268934900000001  1.0000
  C   C17       1.0  0.01212101  0.39617990000000003  0.012762260000000001  1.0000
  C   C18       1.0  0.08610259  0.40872794000000007  0.9685482300000001  1.0000
  C   C19       1.0  0.12811912  0.35459532  0.8335563400000001  1.0000
  C   C20       1.0  0.09496005  0.28870785  0.74376519  1.0000
  C   C21       1.0  0.80752504  0.3905637900000001  0.3277964300000001  1.0000
  C   C22       1.0  0.79583292  0.31872914  0.40235975  1.0000
  C   C23       1.0  0.8262853  0.11801317  0.4870519300000001  1.0000
  C   C24       1.0  0.84193107  0.04463694000000001  0.5386280300000001  1.0000
  C   C25       1.0  0.79381276  0.9975431  0.6872551900000001  1.0000
  C   C26       1.0  0.65456776  0.20326148  0.7470656900000001  1.0000
  C   C27       1.0  0.61869097  0.26845921000000006  0.7578599800000001  1.0000
  C   C28       1.0  0.66474113  0.32120959000000004  0.61954228  1.0000
  C   C29       1.0  0.64654914  0.3923929  0.57317154  1.0000
  C   C30       1.0  0.68788484  0.44825303000000005  0.43937297000000003  1.0000
  C   C31       1.0  0.75935103  0.44756432000000007  0.3401007  1.0000
  C   C32       1.0  0.73411446  0.28565271  0.52578153  1.0000
  C   C33       1.0  0.72483703  0.21317691000000002  0.60355561  1.0000
  C   C34       1.0  0.76108544  0.14448281000000002  0.5982067300000001  1.0000
  C   C35       1.0  0.72500633  0.021986440000000003  0.7880549300000002  1.0000
  C   C36       1.0  0.66833714  0.9804833900000001  0.9268934900000001  1.0000
  C   C37       1.0  0.6038201  0.01212101  0.012762260000000001  1.0000
  C   C38       1.0  0.59127206  0.08610259000000002  0.9685482300000001  1.0000
  C   C39       1.0  0.64540468  0.12811912  0.8335563400000001  1.0000
  C   C40       1.0  0.71129215  0.09496005000000002  0.74376519  1.0000
  C   C41       1.0  0.60943621  0.8075250400000001  0.3277964300000001  1.0000
  C   C42       1.0  0.68127086  0.79583292  0.40235975  1.0000
  C   C43       1.0  0.88198683  0.8262853000000001  0.4870519300000001  1.0000
  C   C44       1.0  0.95536306  0.8419310700000001  0.5386280300000001  1.0000
  C   C45       1.0  0.0024569  0.79381276  0.6872551900000001  1.0000
  C   C46       1.0  0.79673852  0.65456776  0.7470656900000001  1.0000
  C   C47       1.0  0.73154079  0.61869097  0.7578599800000001  1.0000
  C   C48       1.0  0.67879041  0.6647411300000001  0.61954228  1.0000
  C   C49       1.0  0.6076071  0.64654914  0.57317154  1.0000
  C   C50       1.0  0.55174697  0.68788484  0.43937297000000003  1.0000
  C   C51       1.0  0.55243568  0.7593510300000001  0.3401007  1.0000
  C   C52       1.0  0.71434729  0.7341144600000001  0.52578153  1.0000
  C   C53       1.0  0.78682309  0.7248370300000001  0.60355561  1.0000
  C   C54       1.0  0.8555171899999999  0.76108544  0.5982067300000001  1.0000
  C   C55       1.0  0.97801356  0.7250063300000001  0.7880549300000002  1.0000
  C   C56       1.0  0.01951661  0.6683371400000001  0.9268934900000001  1.0000
  C   C57       1.0  0.9878789899999999  0.6038201000000001  0.012762260000000001  1.0000
  C   C58       1.0  0.91389741  0.59127206  0.9685482300000001  1.0000
  C   C59       1.0  0.8718808799999999  0.6454046800000001  0.8335563400000001  1.0000
  C   C60       1.0  0.90503995  0.7112921500000001  0.74376519  1.0000
  C   C61       1.0  0.19247496  0.6094362100000001  0.3277964300000001  1.0000
  C   C62       1.0  0.20416708  0.68127086  0.40235975  1.0000
  C   C63       1.0  0.1737147  0.8819868300000001  0.4870519300000001  1.0000
  C   C64       1.0  0.15806893  0.9553630599999999  0.5386280300000001  1.0000
  C   C65       1.0  0.20618724  0.0024569000000000006  0.6872551900000001  1.0000
  C   C66       1.0  0.34543224  0.7967385200000001  0.7470656900000001  1.0000
  C   C67       1.0  0.38130903  0.73154079  0.7578599800000001  1.0000
  C   C68       1.0  0.33525887  0.6787904100000001  0.61954228  1.0000
  C   C69       1.0  0.35345086  0.6076071  0.57317154  1.0000
  C   C70       1.0  0.31211516  0.5517469699999998  0.43937297000000003  1.0000
  C   C71       1.0  0.24064897  0.55243568  0.3401007  1.0000
  C   C72       1.0  0.26588554  0.71434729  0.52578153  1.0000
  C   C73       1.0  0.27516297  0.78682309  0.60355561  1.0000
  C   C74       1.0  0.23891456  0.85551719  0.5982067300000001  1.0000
  C   C75       1.0  0.27499367  0.9780135599999998  0.7880549300000002  1.0000
  C   C76       1.0  0.33166286  0.01951661  0.9268934900000001  1.0000
  C   C77       1.0  0.3961799  0.9878789900000001  0.012762260000000001  1.0000
  C   C78       1.0  0.40872794  0.9138974100000001  0.9685482300000001  1.0000
  C   C79       1.0  0.35459532  0.87188088  0.8335563400000001  1.0000
  C   C80       1.0  0.28870785  0.90503995  0.74376519  1.0000
