data_image0
_chemical_formula_structural       Al36Os36C2H4O
_chemical_formula_sum              "Al36 Os36 C2 H4 O1"
_cell_length_a       9.097182273864746
_cell_length_b       13.561278385963938
_cell_length_c       30.019168853759766
_cell_angle_alpha    71.56505181415523
_cell_angle_beta     90.0
_cell_angle_gamma    90.0

_space_group_name_H-M_alt    "P 1"
_space_group_IT_number       1

loop_
  _space_group_symop_operation_xyz
  'x, y, z'

loop_
  _atom_site_type_symbol
  _atom_site_label
  _atom_site_symmetry_multiplicity
  _atom_site_fract_x
  _atom_site_fract_y
  _atom_site_fract_z
  _atom_site_occupancy
  Al  Al1       1.0  0.0  0.0  0.5416293859272913  1.0000
  Al  Al2       1.0  0.0  0.16666666048939144  0.5892484892678841  1.0000
  Al  Al3       1.0  0.0  0.3333333209787829  0.49401034082958045  1.0000
  Al  Al4       1.0  0.0  0.0  0.3987722929926188  1.0000
  Al  Al5       1.0  0.0  0.16666666048939144  0.44639133279552207  1.0000
  Al  Al6       1.0  0.0  0.3333333209787829  0.3511532161260632  1.0000
  Al  Al7       1.0  0.0  0.5  0.5416294415227697  1.0000
  Al  Al8       1.0  0.0  0.6666666419575658  0.5892484839730765  1.0000
  Al  Al9       1.0  0.0  0.8333332839151314  0.49401040171986615  1.0000
  Al  Al10      1.0  0.0  0.5  0.3987722850504076  1.0000
  Al  Al11      1.0  0.0  0.6666666419575658  0.4463912957318697  1.0000
  Al  Al12      1.0  0.0  0.8333332839151314  0.3511532452475041  1.0000
  Al  Al13      1.0  0.3333333158613608  0.0  0.5416293859272913  1.0000
  Al  Al14      1.0  0.3333333158613608  0.16666666048939144  0.5892484892678841  1.0000
  Al  Al15      1.0  0.3333333158613608  0.3333333209787829  0.49401034082958045  1.0000
  Al  Al16      1.0  0.3333333158613608  0.0  0.3987722929926188  1.0000
  Al  Al17      1.0  0.3333333158613608  0.16666666048939144  0.44639133279552207  1.0000
  Al  Al18      1.0  0.3333333158613608  0.3333333209787829  0.3511532161260632  1.0000
  Al  Al19      1.0  0.3333333158613608  0.5  0.5416294415227697  1.0000
  Al  Al20      1.0  0.3333333158613608  0.6666666419575658  0.5892484839730765  1.0000
  Al  Al21      1.0  0.3333333158613608  0.8333332839151314  0.49401040171986615  1.0000
  Al  Al22      1.0  0.3333333158613608  0.5  0.3987722850504076  1.0000
  Al  Al23      1.0  0.3333333158613608  0.6666666419575658  0.4463912957318697  1.0000
  Al  Al24      1.0  0.3333333158613608  0.8333332839151314  0.3511532452475041  1.0000
  Al  Al25      1.0  0.6666666317227216  0.0  0.5416293859272913  1.0000
  Al  Al26      1.0  0.6666666317227216  0.16666666048939144  0.5892484892678841  1.0000
  Al  Al27      1.0  0.6666666317227216  0.3333333209787829  0.49401034082958045  1.0000
  Al  Al28      1.0  0.6666666317227216  0.0  0.3987722929926188  1.0000
  Al  Al29      1.0  0.6666666317227216  0.16666666048939144  0.44639133279552207  1.0000
  Al  Al30      1.0  0.6666666317227216  0.3333333209787829  0.3511532161260632  1.0000
  Al  Al31      1.0  0.6666666317227216  0.5  0.5416294415227697  1.0000
  Al  Al32      1.0  0.6666666317227216  0.6666666419575658  0.5892484839730765  1.0000
  Al  Al33      1.0  0.6666666317227216  0.8333332839151314  0.49401040171986615  1.0000
  Al  Al34      1.0  0.6666666317227216  0.5  0.3987722850504076  1.0000
  Al  Al35      1.0  0.6666666317227216  0.6666666419575658  0.4463912957318697  1.0000
  Al  Al36      1.0  0.6666666317227216  0.8333332839151314  0.3511532452475041  1.0000
  Os  Os1       1.0  0.1666666579306804  0.0  0.6130580118167395  1.0000
  Os  Os2       1.0  0.1666666579306804  0.16666666048939144  0.5178199269161254  1.0000
  Os  Os3       1.0  0.1666666579306804  0.3333333209787829  0.5654389667190287  1.0000
  Os  Os4       1.0  0.1666666579306804  0.0  0.47020085534437744  1.0000
  Os  Os5       1.0  0.1666666579306804  0.16666666048939144  0.37496273867491864  1.0000
  Os  Os6       1.0  0.1666666579306804  0.3333333209787829  0.42258181024666663  1.0000
  Os  Os7       1.0  0.1666666579306804  0.5  0.6130580038745282  1.0000
  Os  Os8       1.0  0.1666666579306804  0.6666666419575658  0.517819921621318  1.0000
  Os  Os9       1.0  0.1666666579306804  0.8333332839151314  0.5654389640716248  1.0000
  Os  Os10      1.0  0.1666666579306804  0.5  0.47020081563332145  1.0000
  Os  Os11      1.0  0.1666666579306804  0.6666666419575658  0.3749627651489559  1.0000
  Os  Os12      1.0  0.1666666579306804  0.8333332839151314  0.4225817758304179  1.0000
  Os  Os13      1.0  0.5  0.0  0.6130580118167395  1.0000
  Os  Os14      1.0  0.5  0.16666666048939144  0.5178199269161254  1.0000
  Os  Os15      1.0  0.5  0.3333333209787829  0.5654389667190287  1.0000
  Os  Os16      1.0  0.5  0.0  0.47020085534437744  1.0000
  Os  Os17      1.0  0.5  0.16666666048939144  0.37496273867491864  1.0000
  Os  Os18      1.0  0.5  0.3333333209787829  0.42258181024666663  1.0000
  Os  Os19      1.0  0.5  0.5  0.6130580038745282  1.0000
  Os  Os20      1.0  0.5  0.6666666419575658  0.517819921621318  1.0000
  Os  Os21      1.0  0.5  0.8333332839151314  0.5654389640716248  1.0000
  Os  Os22      1.0  0.5  0.5  0.47020081563332145  1.0000
  Os  Os23      1.0  0.5  0.6666666419575658  0.3749627651489559  1.0000
  Os  Os24      1.0  0.5  0.8333332839151314  0.4225817758304179  1.0000
  Os  Os25      1.0  0.8333333158613608  0.0  0.6130580118167395  1.0000
  Os  Os26      1.0  0.8333333158613608  0.16666666048939144  0.5178199269161254  1.0000
  Os  Os27      1.0  0.8333333158613608  0.3333333209787829  0.5654389667190287  1.0000
  Os  Os28      1.0  0.8333333158613608  0.0  0.47020085534437744  1.0000
  Os  Os29      1.0  0.8333333158613608  0.16666666048939144  0.37496273867491864  1.0000
  Os  Os30      1.0  0.8333333158613608  0.3333333209787829  0.42258181024666663  1.0000
  Os  Os31      1.0  0.8333333158613608  0.5  0.6130580038745282  1.0000
  Os  Os32      1.0  0.8333333158613608  0.6666666419575658  0.517819921621318  1.0000
  Os  Os33      1.0  0.8333333158613608  0.8333332839151314  0.5654389640716248  1.0000
  Os  Os34      1.0  0.8333333158613608  0.5  0.47020081563332145  1.0000
  Os  Os35      1.0  0.8333333158613608  0.6666666419575658  0.3749627651489559  1.0000
  Os  Os36      1.0  0.8333333158613608  0.8333332839151314  0.4225817758304179  1.0000
  C   C1        1.0  0.6666666317227216  0.8915499025744857  0.645900976571906  1.0000
  C   C2        1.0  0.6666666317227216  0.7892318380324361  0.6858350069649584  1.0000
  H   H1        1.0  0.6666666317227216  0.9635764377768749  0.6534334124143348  1.0000
  H   H2        1.0  0.6666666317227216  0.7260178531161562  0.6717025301238427  1.0000
  H   H3        1.0  0.7627027618051917  0.7848277125811676  0.7069560892341723  1.0000
  H   H4        1.0  0.5706305540561691  0.7848277125811676  0.7069560892341723  1.0000
  O   O1        1.0  0.6666666317227216  0.8915499025744857  0.5985978655760099  1.0000
