data_image0
_chemical_formula_structural       Bi16Ni16Zr16N2
_chemical_formula_sum              "Bi16 Ni16 Zr16 N2"
_cell_length_a       8.969319343566895
_cell_length_b       10.985128402709961
_cell_length_c       31.070632934570312
_cell_angle_alpha    90.0
_cell_angle_beta     90.0
_cell_angle_gamma    90.0

_space_group_name_H-M_alt    "P 1"
_space_group_IT_number       1

loop_
  _space_group_symop_operation_xyz
  'x, y, z'

loop_
  _atom_site_type_symbol
  _atom_site_label
  _atom_site_symmetry_multiplicity
  _atom_site_fract_x
  _atom_site_fract_y
  _atom_site_fract_z
  _atom_site_occupancy
  Bi  Bi1       1.0  0.25  0.5229224250356506  0.35416667689791753  1.0000
  Bi  Bi2       1.0  0.25  0.18958908446773093  0.43750000000000006  1.0000
  Bi  Bi3       1.0  0.25  0.8562557438998112  0.5208333231020825  1.0000
  Bi  Bi4       1.0  0.25  0.5229224250356506  0.6041666768979176  1.0000
  Bi  Bi5       1.0  0.0  0.5229224250356506  0.47916667689791753  1.0000
  Bi  Bi6       1.0  0.0  0.18958908446773093  0.5625000306937525  1.0000
  Bi  Bi7       1.0  0.0  0.8562557438998112  0.6458333231020825  1.0000
  Bi  Bi8       1.0  0.0  0.8562557438998112  0.395833353795835  1.0000
  Bi  Bi9       1.0  0.7500000265815688  0.5229224250356506  0.35416667689791753  1.0000
  Bi  Bi10      1.0  0.7500000265815688  0.18958908446773093  0.43750000000000006  1.0000
  Bi  Bi11      1.0  0.7500000265815688  0.8562557438998112  0.5208333231020825  1.0000
  Bi  Bi12      1.0  0.7500000265815688  0.5229224250356506  0.6041666768979176  1.0000
  Bi  Bi13      1.0  0.5  0.5229224250356506  0.47916667689791753  1.0000
  Bi  Bi14      1.0  0.5  0.18958908446773093  0.5625000306937525  1.0000
  Bi  Bi15      1.0  0.5  0.8562557438998112  0.6458333231020825  1.0000
  Bi  Bi16      1.0  0.5  0.8562557438998112  0.395833353795835  1.0000
  Ni  Ni1       1.0  0.0  0.6062557438998113  0.395833353795835  1.0000
  Ni  Ni2       1.0  0.0  0.27292242503565056  0.47916667689791753  1.0000
  Ni  Ni3       1.0  0.0  0.9395890627639719  0.5625000306937525  1.0000
  Ni  Ni4       1.0  0.0  0.6062557438998113  0.6458333231020825  1.0000
  Ni  Ni5       1.0  0.25  0.6062557438998113  0.5208333231020825  1.0000
  Ni  Ni6       1.0  0.25  0.27292242503565056  0.6041666768979176  1.0000
  Ni  Ni7       1.0  0.25  0.27292242503565056  0.35416667689791753  1.0000
  Ni  Ni8       1.0  0.25  0.9395890627639719  0.43750000000000006  1.0000
  Ni  Ni9       1.0  0.5  0.6062557438998113  0.395833353795835  1.0000
  Ni  Ni10      1.0  0.5  0.27292242503565056  0.47916667689791753  1.0000
  Ni  Ni11      1.0  0.5  0.9395890627639719  0.5625000306937525  1.0000
  Ni  Ni12      1.0  0.5  0.6062557438998113  0.6458333231020825  1.0000
  Ni  Ni13      1.0  0.7500000265815688  0.6062557438998113  0.5208333231020825  1.0000
  Ni  Ni14      1.0  0.7500000265815688  0.27292242503565056  0.6041666768979176  1.0000
  Ni  Ni15      1.0  0.7500000265815688  0.27292242503565056  0.35416667689791753  1.0000
  Ni  Ni16      1.0  0.7500000265815688  0.9395890627639719  0.43750000000000006  1.0000
  Zr  Zr1       1.0  0.0  0.35625574389981124  0.6458333231020825  1.0000
  Zr  Zr2       1.0  0.0  0.35625574389981124  0.395833353795835  1.0000
  Zr  Zr3       1.0  0.0  0.022922438600499948  0.47916667689791753  1.0000
  Zr  Zr4       1.0  0.0  0.6895890627639719  0.5625000306937525  1.0000
  Zr  Zr5       1.0  0.25  0.6895890627639719  0.43750000000000006  1.0000
  Zr  Zr6       1.0  0.25  0.35625574389981124  0.5208333231020825  1.0000
  Zr  Zr7       1.0  0.25  0.022922438600499948  0.6041666768979176  1.0000
  Zr  Zr8       1.0  0.25  0.022922438600499948  0.35416667689791753  1.0000
  Zr  Zr9       1.0  0.5  0.35625574389981124  0.6458333231020825  1.0000
  Zr  Zr10      1.0  0.5  0.35625574389981124  0.395833353795835  1.0000
  Zr  Zr11      1.0  0.5  0.022922438600499948  0.47916667689791753  1.0000
  Zr  Zr12      1.0  0.5  0.6895890627639719  0.5625000306937525  1.0000
  Zr  Zr13      1.0  0.7500000265815688  0.6895890627639719  0.43750000000000006  1.0000
  Zr  Zr14      1.0  0.7500000265815688  0.35625574389981124  0.5208333231020825  1.0000
  Zr  Zr15      1.0  0.7500000265815688  0.022922438600499948  0.6041666768979176  1.0000
  Zr  Zr16      1.0  0.7500000265815688  0.022922438600499948  0.35416667689791753  1.0000
  N   N1        1.0  0.8748893808014939  0.6893493664499126  0.6253088405373617  1.0000
  N   N2        1.0  0.859179886301061  0.6553121425933491  0.6691645037802426  1.0000
