data_image0
_chemical_formula_structural       Fe24P48C2H5O
_chemical_formula_sum              "Fe24 P48 C2 H5 O1"
_cell_length_a       11.339609146118164
_cell_length_b       10.334321370554107
_cell_length_c       30.0911922454834
_cell_angle_alpha    105.34951809263313
_cell_angle_beta     90.0
_cell_angle_gamma    90.0

_space_group_name_H-M_alt    "P 1"
_space_group_IT_number       1

loop_
  _space_group_symop_operation_xyz
  'x, y, z'

loop_
  _atom_site_type_symbol
  _atom_site_label
  _atom_site_symmetry_multiplicity
  _atom_site_fract_x
  _atom_site_fract_y
  _atom_site_fract_z
  _atom_site_occupancy
  Fe  Fe1       1.0  0.25  0.25  0.4280302767396799  1.0000
  Fe  Fe2       1.0  0.25  0.7500000239239509  0.38257575146731504  1.0000
  Fe  Fe3       1.0  0.0  0.5  0.4053030288624482  1.0000
  Fe  Fe4       1.0  0.0  0.0  0.45075755630971753  1.0000
  Fe  Fe5       1.0  0.25  0.25  0.5189393791734275  1.0000
  Fe  Fe6       1.0  0.25  0.7500000239239509  0.4734848222082567  1.0000
  Fe  Fe7       1.0  0.0  0.5  0.49621209960338986  1.0000
  Fe  Fe8       1.0  0.0  0.0  0.5416666270506593  1.0000
  Fe  Fe9       1.0  0.25  0.25  0.6098484816071751  1.0000
  Fe  Fe10      1.0  0.25  0.7500000239239509  0.5643939246420043  1.0000
  Fe  Fe11      1.0  0.0  0.5  0.5871211703443315  1.0000
  Fe  Fe12      1.0  0.0  0.0  0.6325757294844069  1.0000
  Fe  Fe13      1.0  0.7499999579494185  0.25  0.4280302767396799  1.0000
  Fe  Fe14      1.0  0.7499999579494185  0.7500000239239509  0.38257575146731504  1.0000
  Fe  Fe15      1.0  0.5  0.5  0.4053030288624482  1.0000
  Fe  Fe16      1.0  0.5  0.0  0.45075755630971753  1.0000
  Fe  Fe17      1.0  0.7499999579494185  0.25  0.5189393791734275  1.0000
  Fe  Fe18      1.0  0.7499999579494185  0.7500000239239509  0.4734848222082567  1.0000
  Fe  Fe19      1.0  0.5  0.5  0.49621209960338986  1.0000
  Fe  Fe20      1.0  0.5  0.0  0.5416666270506593  1.0000
  Fe  Fe21      1.0  0.7499999579494185  0.25  0.6098484816071751  1.0000
  Fe  Fe22      1.0  0.7499999579494185  0.7500000239239509  0.5643939246420043  1.0000
  Fe  Fe23      1.0  0.5  0.5  0.5871211703443315  1.0000
  Fe  Fe24      1.0  0.5  0.0  0.6325757294844069  1.0000
  P   P1        1.0  0.43390174225651157  0.16465156822933766  0.4202713287657467  1.0000
  P   P2        1.0  0.43390174225651157  0.6646515682293377  0.37481680131847733  1.0000
  P   P3        1.0  0.06609825774348842  0.3353484317706623  0.43578922471361314  1.0000
  P   P4        1.0  0.06609825774348842  0.8353484796185642  0.39033470161615286  1.0000
  P   P5        1.0  0.31609825774348843  0.4146515921532886  0.3975440830634195  1.0000
  P   P6        1.0  0.31609825774348843  0.9146515921532886  0.4429986263570918  1.0000
  P   P7        1.0  0.18390174225651157  0.08534843177066233  0.3676074335427091  1.0000
  P   P8        1.0  0.18390174225651157  0.5853484556946132  0.41306197901128594  1.0000
  P   P9        1.0  0.43390174225651157  0.16465156822933766  0.5111804311994943  1.0000
  P   P10       1.0  0.43390174225651157  0.6646515682293377  0.465725872059419  1.0000
  P   P11       1.0  0.06609825774348842  0.3353484317706623  0.5266983271473608  1.0000
  P   P12       1.0  0.06609825774348842  0.8353484796185642  0.48124380404990047  1.0000
  P   P13       1.0  0.31609825774348843  0.4146515921532886  0.48845315380436116  1.0000
  P   P14       1.0  0.31609825774348843  0.9146515921532886  0.5339076970980334  1.0000
  P   P15       1.0  0.18390174225651157  0.08534843177066233  0.45851650428365076  1.0000
  P   P16       1.0  0.18390174225651157  0.5853484556946132  0.5039710497522276  1.0000
  P   P17       1.0  0.43390174225651157  0.16465156822933766  0.6020895336332419  1.0000
  P   P18       1.0  0.43390174225651157  0.6646515682293377  0.5566349744931667  1.0000
  P   P19       1.0  0.06609825774348842  0.3353484317706623  0.6176074295811084  1.0000
  P   P20       1.0  0.06609825774348842  0.8353484796185642  0.5721528747908421  1.0000
  P   P21       1.0  0.31609825774348843  0.4146515921532886  0.5793622245453028  1.0000
  P   P22       1.0  0.31609825774348843  0.9146515921532886  0.6248167678389751  1.0000
  P   P23       1.0  0.18390174225651157  0.08534843177066233  0.5494255750245924  1.0000
  P   P24       1.0  0.18390174225651157  0.5853484556946132  0.5948801204931693  1.0000
  P   P25       1.0  0.9339017002059301  0.16465156822933766  0.4202713287657467  1.0000
  P   P26       1.0  0.9339017002059301  0.6646515682293377  0.37481680131847733  1.0000
  P   P27       1.0  0.5660982577434884  0.3353484317706623  0.43578922471361314  1.0000
  P   P28       1.0  0.5660982577434884  0.8353484796185642  0.39033470161615286  1.0000
  P   P29       1.0  0.8160982577434884  0.4146515921532886  0.3975440830634195  1.0000
  P   P30       1.0  0.8160982577434884  0.9146515921532886  0.4429986263570918  1.0000
  P   P31       1.0  0.6839017002059301  0.08534843177066233  0.3676074335427091  1.0000
  P   P32       1.0  0.6839017002059301  0.5853484556946132  0.41306197901128594  1.0000
  P   P33       1.0  0.9339017002059301  0.16465156822933766  0.5111804311994943  1.0000
  P   P34       1.0  0.9339017002059301  0.6646515682293377  0.465725872059419  1.0000
  P   P35       1.0  0.5660982577434884  0.3353484317706623  0.5266983271473608  1.0000
  P   P36       1.0  0.5660982577434884  0.8353484796185642  0.48124380404990047  1.0000
  P   P37       1.0  0.8160982577434884  0.4146515921532886  0.48845315380436116  1.0000
  P   P38       1.0  0.8160982577434884  0.9146515921532886  0.5339076970980334  1.0000
  P   P39       1.0  0.6839017002059301  0.08534843177066233  0.45851650428365076  1.0000
  P   P40       1.0  0.6839017002059301  0.5853484556946132  0.5039710497522276  1.0000
  P   P41       1.0  0.9339017002059301  0.16465156822933766  0.6020895336332419  1.0000
  P   P42       1.0  0.9339017002059301  0.6646515682293377  0.5566349744931667  1.0000
  P   P43       1.0  0.5660982577434884  0.3353484317706623  0.6176074295811084  1.0000
  P   P44       1.0  0.5660982577434884  0.8353484796185642  0.5721528747908421  1.0000
  P   P45       1.0  0.8160982577434884  0.4146515921532886  0.5793622245453028  1.0000
  P   P46       1.0  0.8160982577434884  0.9146515921532886  0.6248167678389751  1.0000
  P   P47       1.0  0.6839017002059301  0.08534843177066233  0.5494255750245924  1.0000
  P   P48       1.0  0.6839017002059301  0.5853484556946132  0.5948801204931693  1.0000
  C   C1        1.0  0.21466655739122228  0.5903144458844536  0.6469194122265601  1.0000
  C   C2        1.0  0.1946640209001482  0.4445139461801058  0.6208914168531176  1.0000
  H   H1        1.0  0.2473853368949615  0.595332973070531  0.6806866825626938  1.0000
  H   H2        1.0  0.133134569345698  0.6439653891244973  0.6496292994726732  1.0000
  H   H3        1.0  0.3551473528065651  0.6885059483076149  0.6063653919739683  1.0000
  H   H4        1.0  0.15204965677474394  0.42507822414234786  0.6501905187417977  1.0000
  H   H5        1.0  0.2783386437610982  0.41660436072380097  0.6319448177476216  1.0000
  O   O1        1.0  0.2981321468116997  0.6486541964188908  0.6228245253249252  1.0000
