data_image0
_chemical_formula_structural       Fe36Ga12C2HO
_chemical_formula_sum              "Fe36 Ga12 C2 H1 O1"
_cell_length_a       8.034296989440918
_cell_length_b       8.03429698780094
_cell_length_c       39.35985565185547
_cell_angle_alpha    90.0
_cell_angle_beta     90.0
_cell_angle_gamma    59.99999999324769

_space_group_name_H-M_alt    "P 1"
_space_group_IT_number       1

loop_
  _space_group_symop_operation_xyz
  'x, y, z'

loop_
  _atom_site_type_symbol
  _atom_site_label
  _atom_site_symmetry_multiplicity
  _atom_site_fract_x
  _atom_site_fract_y
  _atom_site_fract_z
  _atom_site_occupancy
  Fe  Fe1       1.0  0.3333333276223574  0.33333334475528525  0.5140725144045086  1.0000
  Fe  Fe2       1.0  0.1666666638111787  0.16666667237764263  0.5974058315847625  1.0000
  Fe  Fe3       1.0  0.0  0.0  0.4307391972242548  1.0000
  Fe  Fe4       1.0  0.3333333276223574  0.33333334475528525  0.45157250228969903  1.0000
  Fe  Fe5       1.0  0.1666666638111787  0.16666667237764263  0.5349058679291914  1.0000
  Fe  Fe6       1.0  0.0  0.0  0.6182391851094452  1.0000
  Fe  Fe7       1.0  0.1666666638111787  0.16666667237764263  0.4099058436995721  1.0000
  Fe  Fe8       1.0  0.0  0.0  0.49323916087982594  1.0000
  Fe  Fe9       1.0  0.3333333276223574  0.33333334475528525  0.5765725265193182  1.0000
  Fe  Fe10      1.0  0.33333335729745894  0.8333333447552852  0.5140725144045086  1.0000
  Fe  Fe11      1.0  0.16666665524471475  0.6666666895105705  0.5974058315847625  1.0000
  Fe  Fe12      1.0  0.0  0.5  0.4307391972242548  1.0000
  Fe  Fe13      1.0  0.33333335729745894  0.8333333447552852  0.45157250228969903  1.0000
  Fe  Fe14      1.0  0.16666665524471475  0.6666666895105705  0.5349058679291914  1.0000
  Fe  Fe15      1.0  0.0  0.5  0.6182391851094452  1.0000
  Fe  Fe16      1.0  0.16666665524471475  0.6666666895105705  0.4099058436995721  1.0000
  Fe  Fe17      1.0  0.0  0.5  0.49323916087982594  1.0000
  Fe  Fe18      1.0  0.33333335729745894  0.8333333447552852  0.5765725265193182  1.0000
  Fe  Fe19      1.0  0.8333333276223575  0.33333334475528525  0.5140725144045086  1.0000
  Fe  Fe20      1.0  0.6666666934862803  0.16666667237764263  0.5974058315847625  1.0000
  Fe  Fe21      1.0  0.5  0.0  0.4307391972242548  1.0000
  Fe  Fe22      1.0  0.8333333276223575  0.33333334475528525  0.45157250228969903  1.0000
  Fe  Fe23      1.0  0.6666666934862803  0.16666667237764263  0.5349058679291914  1.0000
  Fe  Fe24      1.0  0.5  0.0  0.6182391851094452  1.0000
  Fe  Fe25      1.0  0.6666666934862803  0.16666667237764263  0.4099058436995721  1.0000
  Fe  Fe26      1.0  0.5  0.0  0.49323916087982594  1.0000
  Fe  Fe27      1.0  0.8333333276223575  0.33333334475528525  0.5765725265193182  1.0000
  Fe  Fe28      1.0  0.8333333572974589  0.8333333447552852  0.5140725144045086  1.0000
  Fe  Fe29      1.0  0.6666666552447148  0.6666666895105705  0.5974058315847625  1.0000
  Fe  Fe30      1.0  0.5000000296751016  0.5  0.4307391972242548  1.0000
  Fe  Fe31      1.0  0.8333333572974589  0.8333333447552852  0.45157250228969903  1.0000
  Fe  Fe32      1.0  0.6666666552447148  0.6666666895105705  0.5349058679291914  1.0000
  Fe  Fe33      1.0  0.5000000296751016  0.5  0.6182391851094452  1.0000
  Fe  Fe34      1.0  0.6666666552447148  0.6666666895105705  0.4099058436995721  1.0000
  Fe  Fe35      1.0  0.5000000296751016  0.5  0.49323916087982594  1.0000
  Fe  Fe36      1.0  0.8333333572974589  0.8333333447552852  0.5765725265193182  1.0000
  Ga  Ga1       1.0  0.0  0.0  0.5557391729946356  1.0000
  Ga  Ga2       1.0  0.3333333276223574  0.33333334475528525  0.38907251440450863  1.0000
  Ga  Ga3       1.0  0.1666666638111787  0.16666667237764263  0.4724058558143817  1.0000
  Ga  Ga4       1.0  0.0  0.5  0.5557391729946356  1.0000
  Ga  Ga5       1.0  0.33333335729745894  0.8333333447552852  0.38907251440450863  1.0000
  Ga  Ga6       1.0  0.16666665524471475  0.6666666895105705  0.4724058558143817  1.0000
  Ga  Ga7       1.0  0.5  0.0  0.5557391729946356  1.0000
  Ga  Ga8       1.0  0.8333333276223575  0.33333334475528525  0.38907251440450863  1.0000
  Ga  Ga9       1.0  0.6666666934862803  0.16666667237764263  0.4724058558143817  1.0000
  Ga  Ga10      1.0  0.5000000296751016  0.5  0.5557391729946356  1.0000
  Ga  Ga11      1.0  0.8333333572974589  0.8333333447552852  0.38907251440450863  1.0000
  Ga  Ga12      1.0  0.6666666552447148  0.6666666895105705  0.4724058558143817  1.0000
  C   C1        1.0  0.23873886916508158  0.5225222616698368  0.6487272665597332  1.0000
  C   C2        1.0  0.3333333276223574  0.33333334475528525  0.6294182468416691  1.0000
  H   H1        1.0  0.3999228504257704  0.20015429914845922  0.6430107724887211  1.0000
  O   O1        1.0  0.15036772403102153  0.6992645519379569  0.6667659273402178  1.0000
