data_image0
_chemical_formula_structural       Ge16Rb32S48NO3
_chemical_formula_sum              "Ge16 Rb32 S48 N1 O3"
_cell_length_a       12.356870259442402
_cell_length_b       20.01393570351183
_cell_length_c       40.26979064941406
_cell_angle_alpha    86.00343058302859
_cell_angle_beta     83.3686520798602
_cell_angle_gamma    85.49032055394073

_space_group_name_H-M_alt    "P 1"
_space_group_IT_number       1

loop_
  _space_group_symop_operation_xyz
  'x, y, z'

loop_
  _atom_site_type_symbol
  _atom_site_label
  _atom_site_symmetry_multiplicity
  _atom_site_fract_x
  _atom_site_fract_y
  _atom_site_fract_z
  _atom_site_occupancy
  Ge  Ge1       1.0  0.38231616423881176  0.26400871739512916  0.4447501048003949  1.0000
  Ge  Ge2       1.0  0.04898281801347019  0.014008709912581819  0.5280834780732745  1.0000
  Ge  Ge3       1.0  0.7156494769923302  0.7640087413392807  0.6114167728470481  1.0000
  Ge  Ge4       1.0  0.7156495210432575  0.5140087173951292  0.36141677877608286  1.0000
  Ge  Ge5       1.0  0.9649060672731834  0.9859913304931739  0.45802763632961113  1.0000
  Ge  Ge6       1.0  0.6315727520916188  0.7359913065490223  0.5413610090726535  1.0000
  Ge  Ge7       1.0  0.29823939806131633  0.48599128260487084  0.6246943358280644  1.0000
  Ge  Ge8       1.0  0.2982394004893625  0.23599128260487084  0.37469431872049636  1.0000
  Ge  Ge9       1.0  0.548982858596383  0.8890087054230534  0.4030834756806128  1.0000
  Ge  Ge10      1.0  0.21564949901779387  0.639008729367205  0.48641680097382595  1.0000
  Ge  Ge11      1.0  0.8823161449874913  0.38900870542305344  0.5697501247689709  1.0000
  Ge  Ge12      1.0  0.5489828256447118  0.13900871739512918  0.65308344905111  1.0000
  Ge  Ge13      1.0  0.4649060605081909  0.11099129457694659  0.5830276389235345  1.0000
  Ge  Ge14      1.0  0.13157273561444183  0.8609912706327951  0.6663609853683394  1.0000
  Ge  Ge15      1.0  0.13157273526834462  0.6109912945769466  0.4163609912117999  1.0000
  Ge  Ge16      1.0  0.7982394173126367  0.3609912945769466  0.4996943128992225  1.0000
  Rb  Rb1       1.0  0.4843222591355266  0.3000999524660704  0.5318444272240167  1.0000
  Rb  Rb2       1.0  0.15098892210221768  0.050099949473051485  0.6151777526514044  1.0000
  Rb  Rb3       1.0  0.1509889144713114  0.8000999524660705  0.36517773283633886  1.0000
  Rb  Rb4       1.0  0.8176556131658291  0.5500999764102219  0.4485111004686058  1.0000
  Rb  Rb5       1.0  0.8628999806988984  0.9499000235897781  0.37093336346354094  1.0000
  Rb  Rb6       1.0  0.5295666211203094  0.6999000475339296  0.45426668875675413  1.0000
  Rb  Rb7       1.0  0.19623330039045814  0.4499000714780811  0.5376000126733437  1.0000
  Rb  Rb8       1.0  0.8628999463601557  0.1999000475339296  0.6209333838327438  1.0000
  Rb  Rb9       1.0  0.08934375064231279  0.23444561579233641  0.5187008256298296  1.0000
  Rb  Rb10      1.0  0.7560104160363792  0.9844455918481849  0.6020341694585244  1.0000
  Rb  Rb11      1.0  0.7560104545390199  0.7344456157923365  0.35203417392536135  1.0000
  Rb  Rb12      1.0  0.42267709496043077  0.4844456397364879  0.4353674992185745  1.0000
  Rb  Rb13      1.0  0.9245451393257076  0.7655543842076636  0.4674102900067854  1.0000
  Rb  Rb14      1.0  0.5912118185958564  0.5155544081518151  0.550743613923375  1.0000
  Rb  Rb15      1.0  0.25787846456555397  0.2655543842076636  0.634076940678786  1.0000
  Rb  Rb16      1.0  0.257878467513752  0.015554379718135196  0.38407694739042636  1.0000
  Rb  Rb17      1.0  0.6509889562672412  0.9250999165498431  0.49017775147107856  1.0000
  Rb  Rb18      1.0  0.31765559668865206  0.6750999404939947  0.5735110767642917  1.0000
  Rb  Rb19      1.0  0.984322237110063  0.4250999644381462  0.6568443990972389  1.0000
  Rb  Rb20      1.0  0.9843222797739185  0.17509995246607044  0.4068444046607242  1.0000
  Rb  Rb21      1.0  0.3628999663050118  0.07490005351996747  0.4959333640469425  1.0000
  Rb  Rb22      1.0  0.02956662823139914  0.8249000595060053  0.5792667099220296  1.0000
  Rb  Rb23      1.0  0.6962332839132811  0.5749000355618539  0.6626000333730186  1.0000
  Rb  Rb24      1.0  0.6962333224159217  0.32490005950600537  0.4126000378398556  1.0000
  Rb  Rb25      1.0  0.5893437615685202  0.1094456157923364  0.39370085077494793  1.0000
  Rb  Rb26      1.0  0.25601043251355626  0.8594456277644121  0.4770341487588495  1.0000
  Rb  Rb27      1.0  0.9226770729349671  0.6094456517085637  0.5603675184560517  1.0000
  Rb  Rb28      1.0  0.5893437577534025  0.3594456277644122  0.643700843834839  1.0000
  Rb  Rb29      1.0  0.7578784852039459  0.1405543842076636  0.5090769654797485  1.0000
  Rb  Rb30      1.0  0.4245451616972686  0.8905543482914363  0.5924102649258477  1.0000
  Rb  Rb31      1.0  0.4245451613511713  0.6405543722355879  0.34241027076930824  1.0000
  Rb  Rb32      1.0  0.09121180177258224  0.39055439617973936  0.4257435960625214  1.0000
  S   S1        1.0  0.3177949883071321  0.1673502602202498  0.5658310854534471  1.0000
  S   S2        1.0  0.9844617008750493  0.917350248248174  0.649164427195813  1.0000
  S   S3        1.0  0.9844616616802141  0.6673502721923256  0.399164434415897  1.0000
  S   S4        1.0  0.6511283464986495  0.41735024824817407  0.4824977597946844  1.0000
  S   S5        1.0  0.6960939321845133  0.8326497278076744  0.42028002951624976  1.0000
  S   S6        1.0  0.3627605726059243  0.582649751751826  0.5036133548094629  1.0000
  S   S7        1.0  0.02942723036975519  0.332649751751826  0.586946680317541  1.0000
  S   S8        1.0  0.02942722932878074  0.08264973977975021  0.3369466874297279  1.0000
  S   S9        1.0  0.0534019888478263  0.9093014696058209  0.4255858120780561  1.0000
  S   S10       1.0  0.7200686486936061  0.6593014935499724  0.5089191810869466  1.0000
  S   S11       1.0  0.38673532796375487  0.40930151749412386  0.5922525050035362  1.0000
  S   S12       1.0  0.38673529293013476  0.1593015055220481  0.34225248963814103  1.0000
  S   S13       1.0  0.25963440892503836  0.18951746835995875  0.4298830805896262  1.0000
  S   S14       1.0  0.9263011214929554  0.939517456387883  0.5132163749677372  1.0000
  S   S15       1.0  0.5929677230656285  0.6895174803320345  0.5965497490018289  1.0000
  S   S16       1.0  0.592967728267818  0.43951745638788303  0.34654973262535965  1.0000
  S   S17       1.0  0.08758780871087452  0.06048253164004125  0.47289469229354875  1.0000
  S   S18       1.0  0.7542545115666072  0.8104825196679655  0.5562280343800706  1.0000
  S   S19       1.0  0.42092115198801805  0.560482543612117  0.6395613596732836  1.0000
  S   S20       1.0  0.42092115441606415  0.310482543612117  0.3895613662478431  1.0000
  S   S21       1.0  0.29382023156222986  0.34069850645002764  0.4771919822580793  1.0000
  S   S22       1.0  0.9604869143000577  0.09069850046398976  0.5605253041282766  1.0000
  S   S23       1.0  0.6271535859386296  0.8406985064500276  0.6438586022949528  1.0000
  S   S24       1.0  0.6271535467437944  0.5906985303941792  0.3938586095150368  1.0000
  S   S25       1.0  0.817795008945524  0.0423502602202498  0.44083111025440946  1.0000
  S   S26       1.0  0.48446167850348837  0.7923502841644013  0.5241644078727615  1.0000
  S   S27       1.0  0.15112832447318594  0.5423502602202498  0.6074977346281725  1.0000
  S   S28       1.0  0.15112832690123207  0.2923502602202498  0.3574977648848594  1.0000
  S   S29       1.0  0.5294272378269421  0.2076497397797502  0.46194665863603185  1.0000
  S   S30       1.0  0.19609388518639415  0.9576497876680532  0.5452800035758517  1.0000
  S   S31       1.0  0.8627605505804606  0.7076497637239018  0.6286133266826851  1.0000
  S   S32       1.0  0.8627605946313879  0.4576497397797502  0.3786133326117198  1.0000
  S   S33       1.0  0.5534019938783086  0.034301499536010235  0.5505858090128799  1.0000
  S   S34       1.0  0.22006864609251137  0.7843015055220481  0.6339191552321228  1.0000
  S   S35       1.0  0.2200686457464142  0.5343015294661997  0.3839191610755833  1.0000
  S   S36       1.0  0.8867353111404807  0.28430150552204814  0.4672524841824166  1.0000
  S   S37       1.0  0.4263010991213946  0.8145174923041103  0.3882164030089408  1.0000
  S   S38       1.0  0.09296774509109217  0.5645174683599588  0.4715497297643517  1.0000
  S   S39       1.0  0.7596343882866464  0.31451746835995875  0.5548830528283978  1.0000
  S   S40       1.0  0.4263010703309384  0.06451746835995875  0.6382163774760864  1.0000
  S   S41       1.0  0.5875878043766108  0.9354825795283443  0.3478946896782317  1.0000
  S   S42       1.0  0.2542544891950463  0.6854825555841928  0.4312280624212741  1.0000
  S   S43       1.0  0.9209211740134816  0.43548253164004125  0.5145613848397956  1.0000
  S   S44       1.0  0.587587817209036  0.18548253164004125  0.5978947108641076  1.0000
  S   S45       1.0  0.4604869286939445  0.9656984705338004  0.4355253065051411  1.0000
  S   S46       1.0  0.1271535885397243  0.7156984944779519  0.5188586311100425  1.0000
  S   S47       1.0  0.7938202483855041  0.4656985184221034  0.602191952754678  1.0000
  S   S48       1.0  0.7938202147389556  0.2156984944779519  0.3521919614369597  1.0000
  N   N1        1.0  0.8516123109155137  0.22395170828591196  0.6917301121704169  1.0000
  O   O1        1.0  0.8427416971963491  0.2917009906078587  0.6955956641960314  1.0000
  O   O2        1.0  0.7623340558395633  0.1955714238236454  0.708697967173973  1.0000
  O   O3        1.0  0.9444473123310491  0.19590532501647598  0.7042251771420531  1.0000
