data_image0
_chemical_formula_structural       Cs12CN
_chemical_formula_sum              "Cs12 C1 N1"
_cell_length_a       15.813743591308594
_cell_length_b       10.068358821617732
_cell_length_c       34.5496826171875
_cell_angle_alpha    70.42273431836034
_cell_angle_beta     90.0
_cell_angle_gamma    66.87992241757864

_space_group_name_H-M_alt    "P 1"
_space_group_IT_number       1

loop_
  _space_group_symop_operation_xyz
  'x, y, z'

loop_
  _atom_site_type_symbol
  _atom_site_label
  _atom_site_symmetry_multiplicity
  _atom_site_fract_x
  _atom_site_fract_y
  _atom_site_fract_z
  _atom_site_occupancy
  Cs  Cs1       1.0  0.33333332872527655  0.6666666850988937  0.4166666648668096  1.0000
  Cs  Cs2       1.0  0.0  0.0  0.6388888827548925  1.0000
  Cs  Cs3       1.0  0.1666666863513925  0.3333333149011063  0.5277777765106366  1.0000
  Cs  Cs4       1.0  0.33333332872527655  0.6666666850988937  0.5833333131314873  1.0000
  Cs  Cs5       1.0  0.0  0.0  0.472222179284248  1.0000
  Cs  Cs6       1.0  0.1666666863513925  0.3333333149011063  0.3611111006429755  1.0000
  Cs  Cs7       1.0  0.8333333287252765  0.6666666850988937  0.4166666648668096  1.0000
  Cs  Cs8       1.0  0.5  0.0  0.6388888827548925  1.0000
  Cs  Cs9       1.0  0.6666666712747235  0.3333333149011063  0.5277777765106366  1.0000
  Cs  Cs10      1.0  0.8333333287252765  0.6666666850988937  0.5833333131314873  1.0000
  Cs  Cs11      1.0  0.5  0.0  0.472222179284248  1.0000
  Cs  Cs12      1.0  0.6666666712747235  0.3333333149011063  0.3611111006429755  1.0000
  C   C1        1.0  0.04556723134675643  0.42477367621404416  0.5965390705780467  1.0000
  N   N1        1.0  0.0935285269508928  0.3455949945001921  0.6396758972093306  1.0000
