data_image0
_chemical_formula_structural       N36Ti36CH2O
_chemical_formula_sum              "N36 Ti36 C1 H2 O1"
_cell_length_a       9.07721996307373
_cell_length_b       9.07721996307373
_cell_length_c       29.953296661376953
_cell_angle_alpha    90.0
_cell_angle_beta     90.0
_cell_angle_gamma    90.0

_space_group_name_H-M_alt    "P 1"
_space_group_IT_number       1

loop_
  _space_group_symop_operation_xyz
  'x, y, z'

loop_
  _atom_site_type_symbol
  _atom_site_label
  _atom_site_symmetry_multiplicity
  _atom_site_fract_x
  _atom_site_fract_y
  _atom_site_fract_z
  _atom_site_occupancy
  N   N1        1.0  0.0  0.33333332457813514  0.6071428616912442  1.0000
  N   N2        1.0  0.16666666228906757  0.16666666228906757  0.5357143084562211  1.0000
  N   N3        1.0  0.0  0.33333332457813514  0.4642856915437788  1.0000
  N   N4        1.0  0.16666666228906757  0.16666666228906757  0.39285713830875574  1.0000
  N   N5        1.0  0.0  0.6666666491562703  0.6071428616912442  1.0000
  N   N6        1.0  0.16666666228906757  0.5  0.5357143084562211  1.0000
  N   N7        1.0  0.0  0.6666666491562703  0.4642856915437788  1.0000
  N   N8        1.0  0.16666666228906757  0.5  0.39285713830875574  1.0000
  N   N9        1.0  0.0  0.0  0.6071428616912442  1.0000
  N   N10       1.0  0.16666666228906757  0.8333332983125407  0.5357143084562211  1.0000
  N   N11       1.0  0.0  0.0  0.4642856915437788  1.0000
  N   N12       1.0  0.16666666228906757  0.8333332983125407  0.39285713830875574  1.0000
  N   N13       1.0  0.33333332457813514  0.33333332457813514  0.6071428616912442  1.0000
  N   N14       1.0  0.5  0.16666666228906757  0.5357143084562211  1.0000
  N   N15       1.0  0.33333332457813514  0.33333332457813514  0.4642856915437788  1.0000
  N   N16       1.0  0.5  0.16666666228906757  0.39285713830875574  1.0000
  N   N17       1.0  0.33333332457813514  0.6666666491562703  0.6071428616912442  1.0000
  N   N18       1.0  0.5  0.5  0.5357143084562211  1.0000
  N   N19       1.0  0.33333332457813514  0.6666666491562703  0.4642856915437788  1.0000
  N   N20       1.0  0.5  0.5  0.39285713830875574  1.0000
  N   N21       1.0  0.33333332457813514  0.0  0.6071428616912442  1.0000
  N   N22       1.0  0.5  0.8333332983125407  0.5357143084562211  1.0000
  N   N23       1.0  0.33333332457813514  0.0  0.4642856915437788  1.0000
  N   N24       1.0  0.5  0.8333332983125407  0.39285713830875574  1.0000
  N   N25       1.0  0.6666666491562703  0.33333332457813514  0.6071428616912442  1.0000
  N   N26       1.0  0.8333332983125407  0.16666666228906757  0.5357143084562211  1.0000
  N   N27       1.0  0.6666666491562703  0.33333332457813514  0.4642856915437788  1.0000
  N   N28       1.0  0.8333332983125407  0.16666666228906757  0.39285713830875574  1.0000
  N   N29       1.0  0.6666666491562703  0.6666666491562703  0.6071428616912442  1.0000
  N   N30       1.0  0.8333332983125407  0.5  0.5357143084562211  1.0000
  N   N31       1.0  0.6666666491562703  0.6666666491562703  0.4642856915437788  1.0000
  N   N32       1.0  0.8333332983125407  0.5  0.39285713830875574  1.0000
  N   N33       1.0  0.6666666491562703  0.0  0.6071428616912442  1.0000
  N   N34       1.0  0.8333332983125407  0.8333332983125407  0.5357143084562211  1.0000
  N   N35       1.0  0.6666666491562703  0.0  0.4642856915437788  1.0000
  N   N36       1.0  0.8333332983125407  0.8333332983125407  0.39285713830875574  1.0000
  Ti  Ti1       1.0  0.0  0.33333332457813514  0.5357143084562211  1.0000
  Ti  Ti2       1.0  0.16666666228906757  0.16666666228906757  0.6071428616912442  1.0000
  Ti  Ti3       1.0  0.0  0.33333332457813514  0.39285713830875574  1.0000
  Ti  Ti4       1.0  0.16666666228906757  0.16666666228906757  0.4642856915437788  1.0000
  Ti  Ti5       1.0  0.0  0.6666666491562703  0.5357143084562211  1.0000
  Ti  Ti6       1.0  0.16666666228906757  0.5  0.6071428616912442  1.0000
  Ti  Ti7       1.0  0.0  0.6666666491562703  0.39285713830875574  1.0000
  Ti  Ti8       1.0  0.16666666228906757  0.5  0.4642856915437788  1.0000
  Ti  Ti9       1.0  0.0  0.0  0.5357143084562211  1.0000
  Ti  Ti10      1.0  0.16666666228906757  0.8333332983125407  0.6071428616912442  1.0000
  Ti  Ti11      1.0  0.0  0.0  0.39285713830875574  1.0000
  Ti  Ti12      1.0  0.16666666228906757  0.8333332983125407  0.4642856915437788  1.0000
  Ti  Ti13      1.0  0.33333332457813514  0.33333332457813514  0.5357143084562211  1.0000
  Ti  Ti14      1.0  0.5  0.16666666228906757  0.6071428616912442  1.0000
  Ti  Ti15      1.0  0.33333332457813514  0.33333332457813514  0.39285713830875574  1.0000
  Ti  Ti16      1.0  0.5  0.16666666228906757  0.4642856915437788  1.0000
  Ti  Ti17      1.0  0.33333332457813514  0.6666666491562703  0.5357143084562211  1.0000
  Ti  Ti18      1.0  0.5  0.5  0.6071428616912442  1.0000
  Ti  Ti19      1.0  0.33333332457813514  0.6666666491562703  0.39285713830875574  1.0000
  Ti  Ti20      1.0  0.5  0.5  0.4642856915437788  1.0000
  Ti  Ti21      1.0  0.33333332457813514  0.0  0.5357143084562211  1.0000
  Ti  Ti22      1.0  0.5  0.8333332983125407  0.6071428616912442  1.0000
  Ti  Ti23      1.0  0.33333332457813514  0.0  0.39285713830875574  1.0000
  Ti  Ti24      1.0  0.5  0.8333332983125407  0.4642856915437788  1.0000
  Ti  Ti25      1.0  0.6666666491562703  0.33333332457813514  0.5357143084562211  1.0000
  Ti  Ti26      1.0  0.8333332983125407  0.16666666228906757  0.6071428616912442  1.0000
  Ti  Ti27      1.0  0.6666666491562703  0.33333332457813514  0.39285713830875574  1.0000
  Ti  Ti28      1.0  0.8333332983125407  0.16666666228906757  0.4642856915437788  1.0000
  Ti  Ti29      1.0  0.6666666491562703  0.6666666491562703  0.5357143084562211  1.0000
  Ti  Ti30      1.0  0.8333332983125407  0.5  0.6071428616912442  1.0000
  Ti  Ti31      1.0  0.6666666491562703  0.6666666491562703  0.39285713830875574  1.0000
  Ti  Ti32      1.0  0.8333332983125407  0.5  0.4642856915437788  1.0000
  Ti  Ti33      1.0  0.6666666491562703  0.0  0.5357143084562211  1.0000
  Ti  Ti34      1.0  0.8333332983125407  0.8333332983125407  0.6071428616912442  1.0000
  Ti  Ti35      1.0  0.6666666491562703  0.0  0.39285713830875574  1.0000
  Ti  Ti36      1.0  0.8333332983125407  0.8333332983125407  0.4642856915437788  1.0000
  C   C1        1.0  0.16666666228906757  0.13823391980903862  0.674133735570856  1.0000
  H   H1        1.0  0.07826112965170245  0.13622684753505276  0.6977536644126133  1.0000
  H   H2        1.0  0.25507220149283133  0.13622684753505276  0.6977536644126133  1.0000
  O   O1        1.0  0.16666666228906757  0.028432739196829638  0.6437841223411335  1.0000
