data_image0
_chemical_formula_structural       Nb20Au40C2H2
_chemical_formula_sum              "Nb20 Au40 C2 H2"
_cell_length_a       8.188304901123047
_cell_length_b       14.608172524143558
_cell_length_c       32.917808532714844
_cell_angle_alpha    83.80345404177588
_cell_angle_beta     90.0
_cell_angle_gamma    55.907607812374835

_space_group_name_H-M_alt    "P 1"
_space_group_IT_number       1

loop_
  _space_group_symop_operation_xyz
  'x, y, z'

loop_
  _atom_site_type_symbol
  _atom_site_label
  _atom_site_symmetry_multiplicity
  _atom_site_fract_x
  _atom_site_fract_y
  _atom_site_fract_z
  _atom_site_occupancy
  Nb  Nb1       1.0  0.7999999920489606  0.20000000795103942  0.3611111073502537  1.0000
  Nb  Nb2       1.0  0.5999999840979211  0.40000001590207884  0.39444443305987903  1.0000
  Nb  Nb3       1.0  0.0  0.0  0.49444444830729506  1.0000
  Nb  Nb4       1.0  0.3999999960244803  0.10000000397551971  0.427777792314464  1.0000
  Nb  Nb5       1.0  0.19999998807344088  0.3000000119265591  0.46111111802408933  1.0000
  Nb  Nb6       1.0  0.7999999920489606  0.20000000795103942  0.5277778029882997  1.0000
  Nb  Nb7       1.0  0.5999999840979211  0.40000001590207884  0.5611110997265457  1.0000
  Nb  Nb8       1.0  0.0  0.0  0.6611111149739617  1.0000
  Nb  Nb9       1.0  0.3999999960244803  0.10000000397551971  0.5944444589811307  1.0000
  Nb  Nb10      1.0  0.19999998807344088  0.3000000119265591  0.6277777557193768  1.0000
  Nb  Nb11      1.0  0.7999999522937634  0.7000000477062365  0.36111110182451545  1.0000
  Nb  Nb12      1.0  0.5999999840979211  0.9000000159020789  0.39444442943845665  1.0000
  Nb  Nb13      1.0  0.0  0.5  0.4944444446858726  1.0000
  Nb  Nb14      1.0  0.39999997614688176  0.6000000238531182  0.4277777877408837  1.0000
  Nb  Nb15      1.0  0.19999996819584234  0.8000000318041577  0.46111108447912974  1.0000
  Nb  Nb16      1.0  0.7999999522937634  0.7000000477062365  0.5277777974625615  1.0000
  Nb  Nb17      1.0  0.5999999840979211  0.9000000159020789  0.5611110961051233  1.0000
  Nb  Nb18      1.0  0.0  0.5  0.6611111113525393  1.0000
  Nb  Nb19      1.0  0.39999997614688176  0.6000000238531182  0.5944444544075503  1.0000
  Nb  Nb20      1.0  0.19999996819584234  0.8000000318041577  0.627777809088555  1.0000
  Au  Au1       1.0  0.6333333253822939  0.20000000795103942  0.444444440683587  1.0000
  Au  Au2       1.0  0.43333331743125447  0.40000001590207884  0.47777776639321234  1.0000
  Au  Au3       1.0  0.8333333333333333  0.0  0.4111111149739617  1.0000
  Au  Au4       1.0  0.23333332935781362  0.10000000397551971  0.3444444300097514  1.0000
  Au  Au5       1.0  0.03333332140677423  0.3000000119265591  0.377777784690756  1.0000
  Au  Au6       1.0  0.9666666587156272  0.20000000795103942  0.444444440683587  1.0000
  Au  Au7       1.0  0.7666666507645877  0.40000001590207884  0.47777776639321234  1.0000
  Au  Au8       1.0  0.16666666666666666  0.0  0.4111111149739617  1.0000
  Au  Au9       1.0  0.566666662691147  0.10000000397551971  0.3444444300097514  1.0000
  Au  Au10      1.0  0.36666665474010757  0.3000000119265591  0.377777784690756  1.0000
  Au  Au11      1.0  0.6333333253822939  0.20000000795103942  0.611111136321633  1.0000
  Au  Au12      1.0  0.43333331743125447  0.40000001590207884  0.6444444330598791  1.0000
  Au  Au13      1.0  0.8333333333333333  0.0  0.5777777816406284  1.0000
  Au  Au14      1.0  0.23333332935781362  0.10000000397551971  0.5111111256477974  1.0000
  Au  Au15      1.0  0.03333332140677423  0.3000000119265591  0.5444444223860434  1.0000
  Au  Au16      1.0  0.9666666587156272  0.20000000795103942  0.611111136321633  1.0000
  Au  Au17      1.0  0.7666666507645877  0.40000001590207884  0.6444444330598791  1.0000
  Au  Au18      1.0  0.16666666666666666  0.0  0.5777777816406284  1.0000
  Au  Au19      1.0  0.566666662691147  0.10000000397551971  0.5111111256477974  1.0000
  Au  Au20      1.0  0.36666665474010757  0.3000000119265591  0.5444444223860434  1.0000
  Au  Au21      1.0  0.6333332856270968  0.7000000477062365  0.44444443515784876  1.0000
  Au  Au22      1.0  0.4333333174312544  0.9000000159020789  0.47777776277178996  1.0000
  Au  Au23      1.0  0.8333333333333333  0.5  0.4111111113525393  1.0000
  Au  Au24      1.0  0.23333330948021513  0.6000000238531182  0.3444444544075504  1.0000
  Au  Au25      1.0  0.03333330152917569  0.8000000318041577  0.3777777801171757  1.0000
  Au  Au26      1.0  0.9666666189604302  0.7000000477062365  0.44444443515784876  1.0000
  Au  Au27      1.0  0.7666666507645877  0.9000000159020789  0.47777776277178996  1.0000
  Au  Au28      1.0  0.16666666666666666  0.5  0.4111111113525393  1.0000
  Au  Au29      1.0  0.5666666428135484  0.6000000238531182  0.3444444544075504  1.0000
  Au  Au30      1.0  0.366666634862509  0.8000000318041577  0.3777777801171757  1.0000
  Au  Au31      1.0  0.6333332856270968  0.7000000477062365  0.6111111307958949  1.0000
  Au  Au32      1.0  0.4333333174312544  0.9000000159020789  0.6444444294384566  1.0000
  Au  Au33      1.0  0.8333333333333333  0.5  0.5777777780192059  1.0000
  Au  Au34      1.0  0.23333330948021513  0.6000000238531182  0.511111121074217  1.0000
  Au  Au35      1.0  0.03333330152917569  0.8000000318041577  0.544444417812463  1.0000
  Au  Au36      1.0  0.9666666189604302  0.7000000477062365  0.6111111307958949  1.0000
  Au  Au37      1.0  0.7666666507645877  0.9000000159020789  0.6444444294384566  1.0000
  Au  Au38      1.0  0.16666666666666666  0.5  0.5777777780192059  1.0000
  Au  Au39      1.0  0.5666666428135484  0.6000000238531182  0.511111121074217  1.0000
  Au  Au40      1.0  0.366666634862509  0.8000000318041577  0.544444417812463  1.0000
  C   C1        1.0  0.6350244174262606  0.19990161383837066  0.6721423216955635  1.0000
  C   C2        1.0  0.8086062911417475  0.18980101092695445  0.6565939114065422  1.0000
  H   H1        1.0  0.6212309702286651  0.19301456264671657  0.7044695426781671  1.0000
  H   H2        1.0  0.9234365049208111  0.17542944756496237  0.6773997605044517  1.0000
