data_image0
_chemical_formula_structural       Cd24Au24C2HO2
_chemical_formula_sum              "Cd24 Au24 C2 H1 O2"
_cell_length_a       9.440035820007324
_cell_length_b       10.931631088256836
_cell_length_c       31.556900024414062
_cell_angle_alpha    90.0
_cell_angle_beta     90.0
_cell_angle_gamma    90.0

_space_group_name_H-M_alt    "P 1"
_space_group_IT_number       1

loop_
  _space_group_symop_operation_xyz
  'x, y, z'

loop_
  _atom_site_type_symbol
  _atom_site_label
  _atom_site_symmetry_multiplicity
  _atom_site_fract_x
  _atom_site_fract_y
  _atom_site_fract_z
  _atom_site_occupancy
  Cd  Cd1       1.0  0.0  0.25  0.375  1.0000
  Cd  Cd2       1.0  0.0  0.0  0.42500001813247146  1.0000
  Cd  Cd3       1.0  0.0  0.25  0.47500000604415715  1.0000
  Cd  Cd4       1.0  0.0  0.0  0.5250000241766286  1.0000
  Cd  Cd5       1.0  0.0  0.25  0.5750000120883143  1.0000
  Cd  Cd6       1.0  0.0  0.0  0.625  1.0000
  Cd  Cd7       1.0  0.0  0.749999956380054  0.375  1.0000
  Cd  Cd8       1.0  0.0  0.5  0.42500001813247146  1.0000
  Cd  Cd9       1.0  0.0  0.749999956380054  0.47500000604415715  1.0000
  Cd  Cd10      1.0  0.0  0.5  0.5250000241766286  1.0000
  Cd  Cd11      1.0  0.0  0.749999956380054  0.5750000120883143  1.0000
  Cd  Cd12      1.0  0.0  0.5  0.625  1.0000
  Cd  Cd13      1.0  0.49999999999999994  0.25  0.375  1.0000
  Cd  Cd14      1.0  0.49999999999999994  0.0  0.42500001813247146  1.0000
  Cd  Cd15      1.0  0.49999999999999994  0.25  0.47500000604415715  1.0000
  Cd  Cd16      1.0  0.49999999999999994  0.0  0.5250000241766286  1.0000
  Cd  Cd17      1.0  0.49999999999999994  0.25  0.5750000120883143  1.0000
  Cd  Cd18      1.0  0.49999999999999994  0.0  0.625  1.0000
  Cd  Cd19      1.0  0.49999999999999994  0.749999956380054  0.375  1.0000
  Cd  Cd20      1.0  0.49999999999999994  0.5  0.42500001813247146  1.0000
  Cd  Cd21      1.0  0.49999999999999994  0.749999956380054  0.47500000604415715  1.0000
  Cd  Cd22      1.0  0.49999999999999994  0.5  0.5250000241766286  1.0000
  Cd  Cd23      1.0  0.49999999999999994  0.749999956380054  0.5750000120883143  1.0000
  Cd  Cd24      1.0  0.49999999999999994  0.5  0.625  1.0000
  Au  Au1       1.0  0.24999999999999997  0.16666666666666666  0.42500001813247146  1.0000
  Au  Au2       1.0  0.24999999999999997  0.4166666666666667  0.375  1.0000
  Au  Au3       1.0  0.24999999999999997  0.16666666666666666  0.5250000241766286  1.0000
  Au  Au4       1.0  0.24999999999999997  0.4166666666666667  0.47500000604415715  1.0000
  Au  Au5       1.0  0.24999999999999997  0.16666666666666666  0.625  1.0000
  Au  Au6       1.0  0.24999999999999997  0.4166666666666667  0.5750000120883143  1.0000
  Au  Au7       1.0  0.24999999999999997  0.6666666666666666  0.42500001813247146  1.0000
  Au  Au8       1.0  0.24999999999999997  0.9166666230467206  0.375  1.0000
  Au  Au9       1.0  0.24999999999999997  0.6666666666666666  0.5250000241766286  1.0000
  Au  Au10      1.0  0.24999999999999997  0.9166666230467206  0.47500000604415715  1.0000
  Au  Au11      1.0  0.24999999999999997  0.6666666666666666  0.625  1.0000
  Au  Au12      1.0  0.24999999999999997  0.9166666230467206  0.5750000120883143  1.0000
  Au  Au13      1.0  0.7500000252561095  0.16666666666666666  0.42500001813247146  1.0000
  Au  Au14      1.0  0.7500000252561095  0.4166666666666667  0.375  1.0000
  Au  Au15      1.0  0.7500000252561095  0.16666666666666666  0.5250000241766286  1.0000
  Au  Au16      1.0  0.7500000252561095  0.4166666666666667  0.47500000604415715  1.0000
  Au  Au17      1.0  0.7500000252561095  0.16666666666666666  0.625  1.0000
  Au  Au18      1.0  0.7500000252561095  0.4166666666666667  0.5750000120883143  1.0000
  Au  Au19      1.0  0.7500000252561095  0.6666666666666666  0.42500001813247146  1.0000
  Au  Au20      1.0  0.7500000252561095  0.9166666230467206  0.375  1.0000
  Au  Au21      1.0  0.7500000252561095  0.6666666666666666  0.5250000241766286  1.0000
  Au  Au22      1.0  0.7500000252561095  0.9166666230467206  0.47500000604415715  1.0000
  Au  Au23      1.0  0.7500000252561095  0.6666666666666666  0.625  1.0000
  Au  Au24      1.0  0.7500000252561095  0.9166666230467206  0.5750000120883143  1.0000
  C   C1        1.0  0.24999999999999997  0.2044190320454806  0.6908950332984707  1.0000
  C   C2        1.0  0.24999999999999997  0.3360666245821427  0.7063974502360364  1.0000
  H   H1        1.0  0.24999999999999997  0.35512088570125955  0.7396557876673083  1.0000
  O   O1        1.0  0.24999999999999997  0.10671941495881491  0.7205497837884101  1.0000
  O   O2        1.0  0.24999999999999997  0.4337662525737949  0.6767427601876687  1.0000
